*Heading
** Job name: all_hex8 Model name: All_hex8
** Generated by: Abaqus/CAE 2021.HF4
*Preprint, echo=NO, model=NO, history=NO, contact=NO
**
** PARTS
**
*Part, name=Part-1
*Node
      1,  -16.0499992,         -10.,          20.
      2,  -16.0499992,          20.,          20.
      3,         -28.,          20.,          20.
      4,         -30.,          18.,          20.
      5,         -30.,         -10.,          20.
      6,  -1.21000004,         -10.,          20.
      7,  -1.21000004,          20.,          20.
      8,          35.,         -10.,          20.
      9,          35.,          18.,          20.
     10,          33.,          20.,          20.
     11,  -16.0499992,         -8.5,          20.
     12,  -16.0499992,          -7.,          20.
     13,  -16.0499992,         -5.5,          20.
     14,  -16.0499992,          -4.,          20.
     15,  -16.0499992,         -2.5,          20.
     16,  -16.0499992,          -1.,          20.
     17,  -16.0499992,          0.5,          20.
     18,  -16.0499992,           2.,          20.
     19,  -16.0499992,          3.5,          20.
     20,  -16.0499992,           5.,          20.
** ... 14680 like lines cut
*Element, type=C3D8R
    1,   166,    12,    11,   165,  1216,  1062,  1061,  1215
    2,    62,   247,   165,    63,  1112,  1297,  1215,  1113
    3,   200,   199,    46,    45,  1250,  1249,  1096,  1095
    4,     3,   168,     4,    37,  1053,  1218,  1054,  1087
    5,    12,   166,   169,    13,  1062,  1216,  1219,  1063
    6,    13,   169,   170,    14,  1063,  1219,  1220,  1064
    7,    14,   170,   171,    15,  1064,  1220,  1221,  1065
    8,    15,   171,   172,    16,  1065,  1221,  1222,  1066
    9,    16,   172,   173,    17,  1066,  1222,  1223,  1067
   10,    18,   174,   175,    19,  1068,  1224,  1225,  1069
   11,    20,   176,   167,    21,  1070,  1226,  1217,  1071
   12,   179,    24,    23,   178,  1229,  1074,  1073,  1228
   13,    21,   167,   177,    22,  1071,  1217,  1227,  1072
   14,    22,   177,   178,    23,  1072,  1227,  1228,  1073
   15,   227,   267,   225,   186,  1277,  1317,  1275,  1236
   16,   168,     3,    36,   184,  1218,  1053,  1086,  1234
   17,    24,   179,   180,    25,  1074,  1229,  1230,  1075
   18,    26,   181,   182,    27,  1076,  1231,  1232,  1077
   19,    27,   182,   183,    28,  1077,  1232,  1233,  1078
   20,   226,    30,     2,    29,  1276,  1080,  1052,  1079
** ... 12798 like lines cut
*Nset, nset=Set-1, generate
     1,  14700,      1
*Elset, elset=Set-1, generate
     1,  12818,      1
*Elset, elset=_short_S1, internal, generate
 211,  410,    1
*Surface, type=ELEMENT, name=short
_short_S1, S1
** Section: Section-1
*Solid Section, elset=Set-1, material=Material-1
,
*End Part
**  
**
** ASSEMBLY
**
*Assembly, name=Assembly
**  
*Instance, name=Part-1-1, part=Part-1
*End Instance
**  
*Elset, elset=_Surf-1_S4, internal, instance=Part-1-1
   451,   978,  1437,  1964,  2423,  2950,  3409,  3936,  4395,  4922,  5381,  5908,  6367,  6894,  7353,  7880
  8339,  8866,  9325,  9852, 10311, 10838, 11297, 11824, 12283, 12810
*Surface, type=ELEMENT, name=Surf-1
_Surf-1_S4, S4
*Elset, elset=_Surf-2_S5, internal, instance=Part-1-1
     3,    21,    27,    29,    31,    32,    33,    34,    36,    39,    40,    41,    43,    51,    59,    60
    91,   989,  1007,  1013,  1015,  1017,  1018,  1019,  1020,  1022,  1025,  1026,  1027,  1029,  1037,  1045
  1046,  1077,  1975,  1993,  1999,  2001,  2003,  2004,  2005,  2006,  2008,  2011,  2012,  2013,  2015,  2023
  2031,  2032,  2063,  2961,  2979,  2985,  2987,  2989,  2990,  2991,  2992,  2994,  2997,  2998,  2999,  3001
  3009,  3017,  3018,  3049,  3947,  3965,  3971,  3973,  3975,  3976,  3977,  3978,  3980,  3983,  3984,  3985
  3987,  3995,  4003,  4004,  4035,  4933,  4951,  4957,  4959,  4961,  4962,  4963,  4964,  4966,  4969,  4970
  4971,  4973,  4981,  4989,  4990,  5021,  5919,  5937,  5943,  5945,  5947,  5948,  5949,  5950,  5952,  5955
  5956,  5957,  5959,  5967,  5975,  5976,  6007,  6905,  6923,  6929,  6931,  6933,  6934,  6935,  6936,  6938
  6941,  6942,  6943,  6945,  6953,  6961,  6962,  6993,  7891,  7909,  7915,  7917,  7919,  7920,  7921,  7922
  7924,  7927,  7928,  7929,  7931,  7939,  7947,  7948,  7979,  8877,  8895,  8901,  8903,  8905,  8906,  8907
  8908,  8910,  8913,  8914,  8915,  8917,  8925,  8933,  8934,  8965,  9863,  9881,  9887,  9889,  9891,  9892
  9893,  9894,  9896,  9899,  9900,  9901,  9903,  9911,  9919,  9920,  9951, 10849, 10867, 10873, 10875, 10877
 10878, 10879, 10880, 10882, 10885, 10886, 10887, 10889, 10897, 10905, 10906, 10937, 11835, 11853, 11859, 11861
 11863, 11864, 11865, 11866, 11868, 11871, 11872, 11873, 11875, 11883, 11891, 11892, 11923
*Elset, elset=_Surf-2_S3, internal, instance=Part-1-1
    73,    77,  1059,  1063,  2045,  2049,  3031,  3035,  4017,  4021,  5003,  5007,  5989,  5993,  6975,  6979
  7961,  7965,  8947,  8951,  9933,  9937, 10919, 10923, 11905, 11909
*Surface, type=ELEMENT, name=Surf-2
_Surf-2_S5, S5
_Surf-2_S3, S3
*End Assembly
** 
** MATERIALS
** 
*Material, name=Material-1
*Density
 1e-05,
*Elastic
 1e+07, 0.3
** ----------------------------------------------------------------
** 
** STEP: Step-1
** 
*Step, name=Step-1, nlgeom=NO
*Static
1., 1., 1e-05, 1.
** 
** LOADS
** 
** Name: Load-1   Type: Pressure
*Dsload
Surf-1, P, 1.
** Name: Load-2   Type: Pressure
*Dsload
Part-1-1.short, P, 3.5
** Name: Load-3   Type: Pressure
*Dsload
Surf-2, P, 5.7
** 
** OUTPUT REQUESTS
** 
*Restart, write, frequency=0
** 
** FIELD OUTPUT: F-Output-1
** 
*Output, field, variable=PRESELECT
** 
** HISTORY OUTPUT: H-Output-1
** 
*Output, history, variable=PRESELECT
*End Step
